src/test/resources/pst_special/process3/20260620_1130_FO5_IT0.uct
##C 2007.05.01
##N
##ZIT
IMFTV121 MONFALC.CE g 0 0 518.72     4.3     2.6     6.8     7.8     0.4     5.1     3.6     5.0
IPDRV121 PADRICIANO g 0 0 136.55    83.6    -8.0     0.2     4.6     7.1     0.2     2.2     0.8
IPDRV122 PADRICIANO g 0 0 609.56     7.4     5.5     0.0     9.6     2.6     3.0     9.2     1.7
IRDPVA21 REDIPUGLIA g 0 0 656.20    13.3    51.0     8.1     7.1     1.7     3.5     8.3     5.9
##ZXX
XPA_DI21 DIVJ    211  0 0 481.46  -000.1   -08.5     8.4     2.5     3.1     8.6     8.7     6.8
##L
IMFTV121 IPDRV121 1 0  9.434 79.562   156.52    800 XXXXXXXXXXXX
IMFTV121 IRDPVA21 1 0  4.918  7.214    55.14    716 XXXXXXXXXXXX
IRDPVA21 IPDRV121 1 0  2.924 22.523   448.86    713 XXXXXXXXXXXX
XPA_DI21 IPDRV122 1 0  7.973  9.745    80.48    900 XXXXXXXXXXXX
##T
IPDRV121 IPDRV122 1 8 062.3 725.1  370.  9.984 46.341   -3.404  8.934    928 XXXXXXXXXXXX
##R
IPDRV121 IPDRV122 1                    6.872  46.9 16   1    0. SYMM
